 &KPP_PARM01

# default deltaTclock
# kpp_freq=,

# default dumpFreq
# kpp_dumpFreq=,

 KPPwriteState   = .TRUE.,
 KPP_ghatUseTotalDiffus=.FALSE.,

&


