
# Continuous equation parameters 
 &PARM01
# viscosity
 viscAz=5.6614E-04,
 viscC4Leith=2.15,
 viscC4Leithd=2.15,
 viscA4GridMax=0.8,
 useAreaViscLength=.TRUE.,
# highOrderVorticity=.TRUE.,

# diffusivity
 saltAdvScheme=7,
 diffKzS=5.44e-7,
 
 nonHydrostatic=.FALSE.,
 saltStepping=.TRUE.,
 tempStepping=.FALSE.,
 staggerTimeStep=.TRUE.,

# multiDimAdvection=.TRUE.,
# vectorInvariantMomentum=.TRUE.,
# equation of state
 eosType='LINEAR',
 tAlpha=0,
 sBeta=7.4E-4,
 sRef=28.,
 tRef=0.,
 rhonil=1029.,

# boundary conditions
 no_slip_sides=.FALSE.,
 no_slip_bottom=.TRUE.,
 bottomDragQuadratic=0.0021,
 implicitFreeSurface=.TRUE.,
 
# physical parameters
 f0=1.4E-04,
 beta=0.0,
 gravity=9.81,

# implicit diffusion and convective adjustment
 implicitDiffusion=.TRUE.,
 implicitViscosity=.TRUE.,

# exact volume conservation
  exactConserv=.TRUE.,

# C-V scheme for Coriolis term
 useCDscheme=.FALSE.,
 &

# elliptic solver parameters
 &PARM02
 cg2dMaxIters=500,
 cg2dTargetResidual=1.000000E-09,
 &


# timestepping parameters
 &PARM03
 deltaT=200.0,
 nIter0=0,
 nTimeSteps=388800,
 pChkptFreq=25920000.,
 taveFreq=604800.,
 dumpFreq=43200.,
 monitorFreq=172800.,
 tracForcingOutAB=1
# tauThetaClimRelax=518400,
 &

# gridding parameters
 &PARM04
 usingCartesianGrid=.TRUE.,
 dXspacing=2.E03,
 dYspacing=2.E03,
 delRFile='eccoZCoordSpacingPadded.bin',
 &
# Input datasets
 &PARM05
 bathyFile='bathy-2km.bin',
# zonalWindFile='zonalWindFile.bin',
# thetaClimFile='thetaClimFile.bin',
 hydrogThetaFile='temp-2km.bin',
 hydrogSaltFile='perturbedSalt-2km.bin',
 vVelInitFile='v-2km.bin',
 uVelInitFile='u-2km.bin',
 pSurfInitFile='eta-2km.bin',
 &
